*Heading
** Job name: Springs Model name: Model-1
** Generated by: Abaqus/CAE 6.14-2
*Preprint, echo=NO, model=NO, history=NO, contact=NO
**
** PARTS
**
*Part, name="Concrete -1"
*Node
      1,  0.200000003,           0., 0.0599999987
      2,           0.,           0., 0.0599999987
      3,           0.,           0.,           0.
      4,  0.200000003,           0.,           0.
      5,           0.,   0.29170078, 0.0599999987
      6,           0.,   0.29170078,           0.
      7,  0.200000003,   0.29170078,           0.
      8,  0.200000003,   0.29170078, 0.0599999987
      9,  0.200000003,           0.,  0.119999997
     10,           0.,           0.,  0.119999997
     11,  0.200000003,   0.29170078,  0.119999997
     12,           0.,   0.29170078,  0.119999997
     13,           0.,  0.449999988,           0.
     14,  0.200000003,  0.449999988,           0.
     15,  0.400000006,  0.449999988,           0.
     16,  0.400000006,  0.337500006,           0.
     17,  0.208157092,  0.301529467,           0.
     18,  0.400000006,  0.337500006,  0.119999997
     19,  0.208157092,  0.301529467,  0.119999997
     20,           0.,  0.449999988, 0.0599999987
** ... 2612 like lines cut
*Element, type=C3D8R
  1,   97,  392, 1354,  336,    1,   26,  300,   47
  2,  392,  393, 1355, 1354,   26,   27,  301,  300
  3,  393,  394, 1356, 1355,   27,   28,  302,  301
  4,  394,  395, 1357, 1356,   28,   29,  303,  302
  5,  395,  396, 1358, 1357,   29,   30,  304,  303
  6,  396,  397, 1359, 1358,   30,   31,  305,  304
  7,  397,  398, 1360, 1359,   31,   32,  306,  305
  8,  398,  399, 1361, 1360,   32,   33,  307,  306
  9,  399,  400, 1362, 1361,   33,   34,  308,  307
 10,  400,  112,  364, 1362,   34,    2,   35,  308
 11,  336, 1354, 1363,  337,   47,  300,  309,   46
 12, 1354, 1355, 1364, 1363,  300,  301,  310,  309
 13, 1355, 1356, 1365, 1364,  301,  302,  311,  310
 14, 1356, 1357, 1366, 1365,  302,  303,  312,  311
 15, 1357, 1358, 1367, 1366,  303,  304,  313,  312
 16, 1358, 1359, 1368, 1367,  304,  305,  314,  313
 17, 1359, 1360, 1369, 1368,  305,  306,  315,  314
 18, 1360, 1361, 1370, 1369,  306,  307,  316,  315
 19, 1361, 1362, 1371, 1370,  307,  308,  317,  316
 20, 1362,  364,  365, 1371,  308,   35,   36,  317
** ... 1972 like lines cut
*Node
   2633,  0.200000003,  0.278441638, 0.0599999987
   2634,  0.200000003,  0.265182525, 0.0599999987
   2635,  0.200000003,  0.251923382, 0.0599999987
   2636,  0.200000003,  0.238664269, 0.0599999987
   2637,  0.200000003,  0.225405142, 0.0599999987
   2638,  0.200000003,  0.212146014, 0.0599999987
   2639,  0.200000003,  0.198886886, 0.0599999987
   2640,  0.200000003,  0.185627759, 0.0599999987
   2641,  0.200000003,  0.172368631, 0.0599999987
   2642,  0.200000003,  0.159109503, 0.0599999987
   2643,  0.200000003,   0.14585039, 0.0599999987
   2644,  0.200000003,  0.132591262, 0.0599999987
   2645,  0.200000003,  0.119332135, 0.0599999987
   2646,  0.200000003,  0.106073007, 0.0599999987
   2647,  0.200000003, 0.0928138793, 0.0599999987
   2648,  0.200000003, 0.0795547515, 0.0599999987
   2649,  0.200000003, 0.0662956312, 0.0599999987
   2650,  0.200000003, 0.0530365035, 0.0599999987
   2651,  0.200000003, 0.0397773758, 0.0599999987
   2652,  0.200000003, 0.0265182517, 0.0599999987
   2653,  0.200000003, 0.0132591259, 0.0599999987
   2654,  0.200000003,   0.29170078, 0.0599999987
   2655,  0.200000003,           0., 0.0599999987
*Nset, nset=Set-1, generate
    1,  2632,     1
*Elset, elset=Set-1, generate
    1,  1992,     1
*Nset, nset="Attachment Points-1-Set-1", generate
 2633,  2655,     1
** Section: Concrete
*Solid Section, elset=Set-1, material=Concrete
,
*End Part
**  
*Part, name="Concrete -2"
*Node
      1, -0.200000003,           0., 0.0599999987
      2,           0.,           0., 0.0599999987
      3,           0.,           0.,           0.
      4, -0.200000003,           0.,           0.
      5,           0.,  -0.29170078, 0.0599999987
      6,           0.,  -0.29170078,           0.
      7, -0.200000003,  -0.29170078,           0.
      8, -0.200000003,  -0.29170078, 0.0599999987
      9, -0.200000003,           0.,  0.119999997
     10,           0.,           0.,  0.119999997
     11, -0.200000003,  -0.29170078,  0.119999997
     12,           0.,  -0.29170078,  0.119999997
     13,           0., -0.449999988,           0.
     14, -0.400000006, -0.449999988,           0.
     15, -0.400000006, -0.337500006,           0.
     16, -0.208157092, -0.301529467,           0.
     17,           0., -0.449999988,  0.119999997
     18, -0.208157092, -0.301529467,  0.119999997
     19, -0.400000006, -0.449999988,  0.119999997
     20, -0.400000006, -0.337500006,  0.119999997
** ... 2612 like lines cut
*Element, type=C3D8R
  1,   92,  369, 1354,  313,    1,   21,  277,   42
  2,  369,  370, 1355, 1354,   21,   22,  278,  277
  3,  370,  371, 1356, 1355,   22,   23,  279,  278
  4,  371,  372, 1357, 1356,   23,   24,  280,  279
  5,  372,  373, 1358, 1357,   24,   25,  281,  280
  6,  373,  374, 1359, 1358,   25,   26,  282,  281
  7,  374,  375, 1360, 1359,   26,   27,  283,  282
  8,  375,  376, 1361, 1360,   27,   28,  284,  283
  9,  376,  377, 1362, 1361,   28,   29,  285,  284
 10,  377,  107,  341, 1362,   29,    2,   30,  285
 11,  313, 1354, 1363,  314,   42,  277,  286,   41
 12, 1354, 1355, 1364, 1363,  277,  278,  287,  286
 13, 1355, 1356, 1365, 1364,  278,  279,  288,  287
 14, 1356, 1357, 1366, 1365,  279,  280,  289,  288
 15, 1357, 1358, 1367, 1366,  280,  281,  290,  289
 16, 1358, 1359, 1368, 1367,  281,  282,  291,  290
 17, 1359, 1360, 1369, 1368,  282,  283,  292,  291
 18, 1360, 1361, 1370, 1369,  283,  284,  293,  292
 19, 1361, 1362, 1371, 1370,  284,  285,  294,  293
 20, 1362,  341,  342, 1371,  285,   30,   31,  294
** ... 1972 like lines cut
*Node
   2633, -0.200000003, -0.278441638, 0.0599999987
   2634, -0.200000003, -0.265182525, 0.0599999987
   2635, -0.200000003, -0.251923382, 0.0599999987
   2636, -0.200000003, -0.238664269, 0.0599999987
   2637, -0.200000003, -0.225405142, 0.0599999987
   2638, -0.200000003, -0.212146014, 0.0599999987
   2639, -0.200000003, -0.198886886, 0.0599999987
   2640, -0.200000003, -0.185627759, 0.0599999987
   2641, -0.200000003, -0.172368631, 0.0599999987
   2642, -0.200000003, -0.159109503, 0.0599999987
   2643, -0.200000003,  -0.14585039, 0.0599999987
   2644, -0.200000003, -0.132591262, 0.0599999987
   2645, -0.200000003, -0.119332135, 0.0599999987
   2646, -0.200000003, -0.106073007, 0.0599999987
   2647, -0.200000003, -0.0928138793, 0.0599999987
   2648, -0.200000003, -0.0795547515, 0.0599999987
   2649, -0.200000003, -0.0662956312, 0.0599999987
   2650, -0.200000003, -0.0530365035, 0.0599999987
   2651, -0.200000003, -0.0397773758, 0.0599999987
   2652, -0.200000003, -0.0265182517, 0.0599999987
   2653, -0.200000003, -0.0132591259, 0.0599999987
   2654, -0.200000003,  -0.29170078, 0.0599999987
   2655, -0.200000003,  2.44929354e-17, 0.0599999987
*Nset, nset=Set-1, generate
    1,  2632,     1
*Elset, elset=Set-1, generate
    1,  1992,     1
*Nset, nset="Attachment Points-1-Set-1", generate
 2633,  2655,     1
** Section: Concrete
*Solid Section, elset=Set-1, material=Concrete
,
*End Part
**  
**
** ASSEMBLY
**
*Assembly, name=Assembly
**  
*Instance, name="Concrete -2-1", part="Concrete -2"
*End Instance
**  
*Instance, name="Concrete -1-2", part="Concrete -1"
      -0.401,    -0.291701,           0.
*End Instance
**  
*Nset, nset=Deformation, instance="Concrete -1-2"
 1,
*Nset, nset=Displacement, instance="Concrete -1-2"
 8,
*Nset, nset=Load2, instance="Concrete -1-2"
   13,   14,   15,   20,   21,   22,   23,   24,   25,  187,  188,  189,  190,  191,  192,  193
  194,  195,  196,  197,  198,  199,  200,  201,  202,  203,  204,  247,  248,  249,  250,  251
  252,  253,  254,  255,  256,  257,  258,  259,  260,  261,  262,  263,  264,  265,  266,  267
  268,  269,  270,  271,  272,  278,  279,  280,  281,  282,  283,  284,  285,  286,  287,  288
  289,  290,  291,  292,  293,  294,  295,  296,  297,  298,  299, 1102, 1103, 1104, 1105, 1106
 1107, 1108, 1109, 1110, 1111, 1112, 1113, 1114, 1115, 1116, 1117, 1118, 1119, 1120, 1121, 1122
 1123, 1124, 1125, 1126, 1127, 1128, 1129, 1130, 1131, 1132, 1133, 1134, 1135, 1136, 1137, 1163
 1164, 1165, 1166, 1167, 1168, 1169, 1170, 1171, 1172, 1173, 1174, 1175, 1176, 1177, 1178, 1179
 1180, 1181, 1182, 1183, 1184, 1185, 1186, 1187, 1188, 1189, 1190, 1191, 1192, 1193, 1194, 1195
 1196, 1197, 1198
*Elset, elset=Load2, instance="Concrete -1-2"
  902,  904,  906,  908,  917,  920,  923,  924,  931,  935,  936,  944,  953,  956,  958,  966
  967,  970,  979, 1012, 1084, 1086, 1088, 1090, 1099, 1102, 1105, 1106, 1113, 1117, 1118, 1126
 1135, 1138, 1140, 1148, 1149, 1152, 1161, 1194, 1266, 1268, 1270, 1272, 1281, 1284, 1287, 1288
 1295, 1299, 1300, 1308, 1317, 1320, 1322, 1330, 1331, 1334, 1343, 1376, 1448, 1450, 1452, 1454
 1463, 1466, 1469, 1470, 1477, 1481, 1482, 1490, 1499, 1502, 1504, 1512, 1513, 1516, 1525, 1558
 1630, 1632, 1634, 1636, 1645, 1648, 1651, 1652, 1659, 1663, 1664, 1672, 1681, 1684, 1686, 1694
 1695, 1698, 1707, 1740, 1812, 1814, 1816, 1818, 1827, 1830, 1833, 1834, 1841, 1845, 1846, 1854
 1863, 1866, 1868, 1876, 1877, 1880, 1889, 1922
*Nset, nset=Set-1, instance="Concrete -2-1"
   13,   14,   17,   19,  182,  183,  184,  185,  186,  187,  188,  189,  190,  191,  192,  193
  194,  195,  196,  197,  198,  199,  200,  223,  224,  225,  226,  227,  234,  235,  236,  237
  238,  239,  240,  241,  242,  243,  244,  245,  246,  247,  248,  249,  250,  251,  252,  253
  254,  255,  256,  257, 1034, 1035, 1036, 1037, 1038, 1039, 1040, 1041, 1042, 1043, 1044, 1045
 1046, 1047, 1048, 1049, 1050, 1051, 1052, 1053, 1054, 1055, 1056, 1057, 1058, 1059, 1060, 1061
 1062, 1063, 1064, 1065, 1066, 1067, 1068, 1069, 1070, 1071, 1072, 1073, 1074, 1075, 1076, 1077
 1078, 1079, 1080, 1081, 1082, 1083, 1084, 1085, 1086, 1087, 1088, 1089, 1090, 1091, 1092, 1093
 1094, 1095, 1096, 1097, 1098, 1099, 1100, 1101, 1102, 1103, 1104, 1105, 1106, 1107, 1108, 1109
 1110, 1111, 1112, 1113, 1114, 1115, 1116, 1117, 1118, 1119, 1120, 1121, 1122, 1123, 1124, 1125
 1126, 1127, 1128
*Elset, elset=Set-1, instance="Concrete -2-1"
  907,  917,  918,  919,  920,  921,  928,  930,  936,  946,  953,  955,  957,  961,  964,  968
  971,  979,  983,  989, 1089, 1099, 1100, 1101, 1102, 1103, 1110, 1112, 1118, 1128, 1135, 1137
 1139, 1143, 1146, 1150, 1153, 1161, 1165, 1171, 1271, 1281, 1282, 1283, 1284, 1285, 1292, 1294
 1300, 1310, 1317, 1319, 1321, 1325, 1328, 1332, 1335, 1343, 1347, 1353, 1453, 1463, 1464, 1465
 1466, 1467, 1474, 1476, 1482, 1492, 1499, 1501, 1503, 1507, 1510, 1514, 1517, 1525, 1529, 1535
 1635, 1645, 1646, 1647, 1648, 1649, 1656, 1658, 1664, 1674, 1681, 1683, 1685, 1689, 1692, 1696
 1699, 1707, 1711, 1717, 1817, 1827, 1828, 1829, 1830, 1831, 1838, 1840, 1846, 1856, 1863, 1865
 1867, 1871, 1874, 1878, 1881, 1889, 1893, 1899
*Nset, nset=Set-2, instance="Concrete -2-1"
   13,   14,   17,   19,  182,  183,  184,  185,  186,  187,  188,  189,  190,  191,  192,  193
  194,  195,  196,  197,  198,  199,  200,  223,  224,  225,  226,  227,  234,  235,  236,  237
  238,  239,  240,  241,  242,  243,  244,  245,  246,  247,  248,  249,  250,  251,  252,  253
  254,  255,  256,  257, 1034, 1035, 1036, 1037, 1038, 1039, 1040, 1041, 1042, 1043, 1044, 1045
 1046, 1047, 1048, 1049, 1050, 1051, 1052, 1053, 1054, 1055, 1056, 1057, 1058, 1059, 1060, 1061
 1062, 1063, 1064, 1065, 1066, 1067, 1068, 1069, 1070, 1071, 1072, 1073, 1074, 1075, 1076, 1077
 1078, 1079, 1080, 1081, 1082, 1083, 1084, 1085, 1086, 1087, 1088, 1089, 1090, 1091, 1092, 1093
 1094, 1095, 1096, 1097, 1098, 1099, 1100, 1101, 1102, 1103, 1104, 1105, 1106, 1107, 1108, 1109
 1110, 1111, 1112, 1113, 1114, 1115, 1116, 1117, 1118, 1119, 1120, 1121, 1122, 1123, 1124, 1125
 1126, 1127, 1128
*Elset, elset=Set-2, instance="Concrete -2-1"
  907,  917,  918,  919,  920,  921,  928,  930,  936,  946,  953,  955,  957,  961,  964,  968
  971,  979,  983,  989, 1089, 1099, 1100, 1101, 1102, 1103, 1110, 1112, 1118, 1128, 1135, 1137
 1139, 1143, 1146, 1150, 1153, 1161, 1165, 1171, 1271, 1281, 1282, 1283, 1284, 1285, 1292, 1294
 1300, 1310, 1317, 1319, 1321, 1325, 1328, 1332, 1335, 1343, 1347, 1353, 1453, 1463, 1464, 1465
 1466, 1467, 1474, 1476, 1482, 1492, 1499, 1501, 1503, 1507, 1510, 1514, 1517, 1525, 1529, 1535
 1635, 1645, 1646, 1647, 1648, 1649, 1656, 1658, 1664, 1674, 1681, 1683, 1685, 1689, 1692, 1696
 1699, 1707, 1711, 1717, 1817, 1827, 1828, 1829, 1830, 1831, 1838, 1840, 1846, 1856, 1863, 1865
 1867, 1871, 1874, 1878, 1881, 1889, 1893, 1899
*Nset, nset=Set-3, instance="Concrete -2-1"
   13,   14,   17,   19,  182,  183,  184,  185,  186,  187,  188,  189,  190,  191,  192,  193
  194,  195,  196,  197,  198,  199,  200,  223,  224,  225,  226,  227,  234,  235,  236,  237
  238,  239,  240,  241,  242,  243,  244,  245,  246,  247,  248,  249,  250,  251,  252,  253
  254,  255,  256,  257, 1034, 1035, 1036, 1037, 1038, 1039, 1040, 1041, 1042, 1043, 1044, 1045
 1046, 1047, 1048, 1049, 1050, 1051, 1052, 1053, 1054, 1055, 1056, 1057, 1058, 1059, 1060, 1061
 1062, 1063, 1064, 1065, 1066, 1067, 1068, 1069, 1070, 1071, 1072, 1073, 1074, 1075, 1076, 1077
 1078, 1079, 1080, 1081, 1082, 1083, 1084, 1085, 1086, 1087, 1088, 1089, 1090, 1091, 1092, 1093
 1094, 1095, 1096, 1097, 1098, 1099, 1100, 1101, 1102, 1103, 1104, 1105, 1106, 1107, 1108, 1109
 1110, 1111, 1112, 1113, 1114, 1115, 1116, 1117, 1118, 1119, 1120, 1121, 1122, 1123, 1124, 1125
 1126, 1127, 1128
*Elset, elset=Set-3, instance="Concrete -2-1"
  907,  917,  918,  919,  920,  921,  928,  930,  936,  946,  953,  955,  957,  961,  964,  968
  971,  979,  983,  989, 1089, 1099, 1100, 1101, 1102, 1103, 1110, 1112, 1118, 1128, 1135, 1137
 1139, 1143, 1146, 1150, 1153, 1161, 1165, 1171, 1271, 1281, 1282, 1283, 1284, 1285, 1292, 1294
 1300, 1310, 1317, 1319, 1321, 1325, 1328, 1332, 1335, 1343, 1347, 1353, 1453, 1463, 1464, 1465
 1466, 1467, 1474, 1476, 1482, 1492, 1499, 1501, 1503, 1507, 1510, 1514, 1517, 1525, 1529, 1535
 1635, 1645, 1646, 1647, 1648, 1649, 1656, 1658, 1664, 1674, 1681, 1683, 1685, 1689, 1692, 1696
 1699, 1707, 1711, 1717, 1817, 1827, 1828, 1829, 1830, 1831, 1838, 1840, 1846, 1856, 1863, 1865
 1867, 1871, 1874, 1878, 1881, 1889, 1893, 1899
*Nset, nset=Set-6, instance="Concrete -2-1"
   13,   14,   17,   19,  182,  183,  184,  185,  186,  187,  188,  189,  190,  191,  192,  193
  194,  195,  196,  197,  198,  199,  200,  223,  224,  225,  226,  227,  234,  235,  236,  237
  238,  239,  240,  241,  242,  243,  244,  245,  246,  247,  248,  249,  250,  251,  252,  253
  254,  255,  256,  257, 1034, 1035, 1036, 1037, 1038, 1039, 1040, 1041, 1042, 1043, 1044, 1045
 1046, 1047, 1048, 1049, 1050, 1051, 1052, 1053, 1054, 1055, 1056, 1057, 1058, 1059, 1060, 1061
 1062, 1063, 1064, 1065, 1066, 1067, 1068, 1069, 1070, 1071, 1072, 1073, 1074, 1075, 1076, 1077
 1078, 1079, 1080, 1081, 1082, 1083, 1084, 1085, 1086, 1087, 1088, 1089, 1090, 1091, 1092, 1093
 1094, 1095, 1096, 1097, 1098, 1099, 1100, 1101, 1102, 1103, 1104, 1105, 1106, 1107, 1108, 1109
 1110, 1111, 1112, 1113, 1114, 1115, 1116, 1117, 1118, 1119, 1120, 1121, 1122, 1123, 1124, 1125
 1126, 1127, 1128
*Elset, elset=Set-6, instance="Concrete -2-1"
  907,  917,  918,  919,  920,  921,  928,  930,  936,  946,  953,  955,  957,  961,  964,  968
  971,  979,  983,  989, 1089, 1099, 1100, 1101, 1102, 1103, 1110, 1112, 1118, 1128, 1135, 1137
 1139, 1143, 1146, 1150, 1153, 1161, 1165, 1171, 1271, 1281, 1282, 1283, 1284, 1285, 1292, 1294
 1300, 1310, 1317, 1319, 1321, 1325, 1328, 1332, 1335, 1343, 1347, 1353, 1453, 1463, 1464, 1465
 1466, 1467, 1474, 1476, 1482, 1492, 1499, 1501, 1503, 1507, 1510, 1514, 1517, 1525, 1529, 1535
 1635, 1645, 1646, 1647, 1648, 1649, 1656, 1658, 1664, 1674, 1681, 1683, 1685, 1689, 1692, 1696
 1699, 1707, 1711, 1717, 1817, 1827, 1828, 1829, 1830, 1831, 1838, 1840, 1846, 1856, 1863, 1865
 1867, 1871, 1874, 1878, 1881, 1889, 1893, 1899
*Nset, nset=Set-58, instance="Concrete -2-1"
    2,    3,    5,    6,   10,   12,   13,   17,   30,   31,   52,   53,   93,   94,   95,   96
   97,   98,   99,  100,  101,  102,  103,  104,  105,  106,  107,  108,  109,  110,  111,  112
  113,  114,  115,  116,  117,  118,  119,  120,  132,  133,  145,  146,  147,  148,  149,  150
  151,  152,  153,  154,  155,  156,  157,  158,  159,  160,  175,  176,  177,  178,  179,  180
  181,  216,  217,  218,  219,  220,  221,  222,  223,  224,  225,  226,  227,  341,  342,  343
  344,  345,  346,  347,  348,  349,  350,  351,  352,  353,  354,  355,  356,  357,  358,  359
  360,  361,  362,  363,  364,  365,  366,  367,  368,  657,  658,  659,  660,  661,  662,  663
  664,  665,  666,  667,  668,  669,  670,  671,  672,  673,  674,  675,  676,  677,  678,  679
  680,  681,  682,  683,  684,  994,  995,  996,  997,  998,  999, 1000, 1001, 1002, 1003, 1004
 1005, 1006, 1007, 1008, 1009, 1010, 1011, 1012, 1013, 1014, 1015, 1016, 1017, 1018, 1019, 1020
 1021, 1022, 1023, 1024, 1025, 1026, 1027, 1028
*Elset, elset=Set-58, instance="Concrete -2-1"
   10,   20,   30,   40,   50,   60,   70,   80,   90,  100,  110,  120,  130,  140,  150,  160
  170,  180,  190,  200,  210,  220,  230,  240,  250,  260,  270,  280,  290,  300,  310,  320
  330,  340,  350,  360,  370,  380,  390,  400,  410,  420,  430,  440,  450,  451,  461,  471
  481,  491,  501,  511,  521,  531,  541,  551,  561,  571,  581,  591,  601,  611,  621,  631
  641,  651,  661,  671,  681,  691,  701,  711,  721,  731,  741,  751,  761,  771,  781,  791
  801,  811,  821,  831,  841,  851,  861,  871,  881,  891,  908,  909,  910,  912,  914,  915
  920,  974, 1090, 1091, 1092, 1094, 1096, 1097, 1102, 1156, 1272, 1273, 1274, 1276, 1278, 1279
 1284, 1338, 1454, 1455, 1456, 1458, 1460, 1461, 1466, 1520, 1636, 1637, 1638, 1640, 1642, 1643
 1648, 1702, 1818, 1819, 1820, 1822, 1824, 1825, 1830, 1884
*Nset, nset=Set-59, instance="Concrete -1-2"
    2,    3,    5,    6,   10,   12,   13,   20,   21,   35,   36,   57,   58,   98,   99,  100
  101,  102,  103,  104,  105,  106,  107,  108,  109,  110,  111,  112,  113,  114,  115,  116
  117,  118,  119,  120,  121,  122,  123,  124,  125,  137,  138,  150,  151,  152,  153,  154
  155,  156,  157,  158,  159,  160,  161,  162,  163,  164,  165,  180,  181,  182,  183,  184
  185,  186,  240,  241,  242,  243,  244,  245,  246,  247,  248,  249,  250,  364,  365,  366
  367,  368,  369,  370,  371,  372,  373,  374,  375,  376,  377,  378,  379,  380,  381,  382
  383,  384,  385,  386,  387,  388,  389,  390,  391,  680,  681,  682,  683,  684,  685,  686
  687,  688,  689,  690,  691,  692,  693,  694,  695,  696,  697,  698,  699,  700,  701,  702
  703,  704,  705,  706,  707, 1067, 1068, 1069, 1070, 1071, 1072, 1073, 1074, 1075, 1076, 1077
 1078, 1079, 1080, 1081, 1082, 1083, 1084, 1085, 1086, 1087, 1088, 1089, 1090, 1091, 1092, 1093
 1094, 1095, 1096, 1097, 1098, 1099, 1100, 1101
*Elset, elset=Set-59, instance="Concrete -1-2"
   10,   20,   30,   40,   50,   60,   70,   80,   90,  100,  110,  120,  130,  140,  150,  160
  170,  180,  190,  200,  210,  220,  230,  240,  250,  260,  270,  280,  290,  300,  310,  320
  330,  340,  350,  360,  370,  380,  390,  400,  410,  420,  430,  440,  450,  451,  461,  471
  481,  491,  501,  511,  521,  531,  541,  551,  561,  571,  581,  591,  601,  611,  621,  631
  641,  651,  661,  671,  681,  691,  701,  711,  721,  731,  741,  751,  761,  771,  781,  791
  801,  811,  821,  831,  841,  851,  861,  871,  881,  891,  909,  912,  914,  915,  916,  918
  919,  920, 1091, 1094, 1096, 1097, 1098, 1100, 1101, 1102, 1273, 1276, 1278, 1279, 1280, 1282
 1283, 1284, 1455, 1458, 1460, 1461, 1462, 1464, 1465, 1466, 1637, 1640, 1642, 1643, 1644, 1646
 1647, 1648, 1819, 1822, 1824, 1825, 1826, 1828, 1829, 1830
*Nset, nset=Set-63, instance="Concrete -1-2"
 24,
*Nset, nset=Set-64, instance="Concrete -1-2"
 22,
*Elset, elset=_Surf-1_S5, internal, instance="Concrete -1-2"
  902,  917,  920,  924,  936,  953,  956,  958,  966,  967,  970, 1012, 1084, 1099, 1102, 1106
 1118, 1135, 1138, 1140, 1148, 1149, 1152, 1194, 1266, 1281, 1284, 1288, 1300, 1317, 1320, 1322
 1330, 1331, 1334, 1376, 1448, 1463, 1466, 1470, 1482, 1499, 1502, 1504, 1512, 1513, 1516, 1558
 1630, 1645, 1648, 1652, 1664, 1681, 1684, 1686, 1694, 1695, 1698, 1740, 1812, 1827, 1830, 1834
 1846, 1863, 1866, 1868, 1876, 1877, 1880, 1922
*Elset, elset=_Surf-1_S3, internal, instance="Concrete -1-2"
  904,  906,  908,  923,  944,  979, 1086, 1088, 1090, 1105, 1126, 1161, 1268, 1270, 1272, 1287
 1308, 1343, 1450, 1452, 1454, 1469, 1490, 1525, 1632, 1634, 1636, 1651, 1672, 1707, 1814, 1816
 1818, 1833, 1854, 1889
*Elset, elset=_Surf-1_S4, internal, instance="Concrete -1-2", generate
  931,  1841,   182
*Elset, elset=_Surf-1_S6, internal, instance="Concrete -1-2", generate
  935,  1845,   182
*Surface, type=ELEMENT, name=Surf-1
_Surf-1_S5, S5
_Surf-1_S3, S3
_Surf-1_S4, S4
_Surf-1_S6, S6
*Orientation, name="Datum csys-1"
          1.,           0.,           0.,           0.,           1.,           0.
1, 0.
*Spring, elset=springs-spring, orientation="Datum csys-1"
2, 2
50.
*Element, type=Spring2, elset=springs-spring
1, "Concrete -1-2".2653, "Concrete -2-1".2633
2, "Concrete -1-2".2652, "Concrete -2-1".2634
3, "Concrete -1-2".2651, "Concrete -2-1".2635
4, "Concrete -1-2".2650, "Concrete -2-1".2636
5, "Concrete -1-2".2649, "Concrete -2-1".2637
6, "Concrete -2-1".2654, "Concrete -1-2".2655
7, "Concrete -1-2".2648, "Concrete -2-1".2638
8, "Concrete -1-2".2647, "Concrete -2-1".2639
9, "Concrete -1-2".2646, "Concrete -2-1".2640
10, "Concrete -1-2".2645, "Concrete -2-1".2641
11, "Concrete -1-2".2644, "Concrete -2-1".2642
12, "Concrete -1-2".2643, "Concrete -2-1".2643
13, "Concrete -1-2".2642, "Concrete -2-1".2644
14, "Concrete -1-2".2641, "Concrete -2-1".2645
15, "Concrete -1-2".2640, "Concrete -2-1".2646
16, "Concrete -1-2".2639, "Concrete -2-1".2647
17, "Concrete -1-2".2638, "Concrete -2-1".2648
18, "Concrete -1-2".2637, "Concrete -2-1".2649
19, "Concrete -1-2".2636, "Concrete -2-1".2650
20, "Concrete -1-2".2635, "Concrete -2-1".2651
21, "Concrete -1-2".2634, "Concrete -2-1".2652
22, "Concrete -1-2".2633, "Concrete -2-1".2653
23, "Concrete -1-2".2654, "Concrete -2-1".2655
*End Assembly
*Amplitude, name=Amp-1
             0.,              0.,             36.,              1.
*Amplitude, name=Amp-2, definition=SMOOTH STEP
             0.,              0.,            180.,             0.5,            360.,              1.
** 
*ENRICHMENT, TYPE=PROPAGATION CRACK, ELSET=ENRICHED, 
NAME=ENRICHMENT, INTERACTION=INTERACTION

** MATERIALS
** 
*Material, name=Concrete
*Density
2400.,
*Elastic
 3.3e+10, 0.2
** 
** BOUNDARY CONDITIONS
** 
** Name: BC-1 Type: Displacement/Rotation
*Boundary
Set-58, 1, 1
** Name: BC-2 Type: Displacement/Rotation
*Boundary
Set-6, 2, 2
** Name: BC-3 Type: Displacement/Rotation
*Boundary
Set-59, 1, 1
Set-59, 3, 3
** ----------------------------------------------------------------
** 
** STEP: Step-1
** 
*Step, name=Step-1, nlgeom=YES, inc=10000
*Static
0.01, 360., 1e-15, 360.
** 
** LOADS
** 
** Name: Load-1   Type: Concentrated force
*Cload, amplitude=Amp-1
Set-64, 2, -200000.
** 
** CONTROLS
** 
*Controls, reset
*Controls, parameters=time incrementation
, , , , , , , 20, , , 
** 
** OUTPUT REQUESTS
** 
*Restart, write, frequency=0
** 
** FIELD OUTPUT: F-Output-1
** 
*Output, field, variable=PRESELECT
** 
** HISTORY OUTPUT: H-Output-1
** 
*Output, history, variable=PRESELECT
*CONTOUR INTEGRAL, CRACK NAME=ENRICHMENT, XFEM
*End Step
